Version 4
SHEET 1 1716 948
WIRE -240 -368 -256 -368
WIRE -96 -368 -240 -368
WIRE 16 -368 -96 -368
WIRE 544 -336 496 -336
WIRE 672 -336 544 -336
WIRE 816 -336 672 -336
WIRE 1216 -336 1200 -336
WIRE 1280 -336 1216 -336
WIRE 1440 -336 1280 -336
WIRE 1584 -336 1440 -336
WIRE -320 -288 -320 -304
WIRE -240 -288 -240 -368
WIRE -240 -288 -320 -288
WIRE 432 -256 432 -272
WIRE 496 -256 496 -336
WIRE 496 -256 432 -256
WIRE 608 -256 608 -272
WIRE 624 -256 608 -256
WIRE 1136 -256 1136 -272
WIRE 1216 -256 1216 -336
WIRE 1216 -256 1136 -256
WIRE 80 -240 80 -304
WIRE 80 -240 16 -240
WIRE 160 -240 80 -240
WIRE 16 -160 16 -240
WIRE 160 -160 160 -240
WIRE 1344 -112 1344 -272
WIRE 1440 -112 1344 -112
WIRE 1584 -112 1440 -112
WIRE -160 -96 -224 -96
WIRE -48 -96 -160 -96
WIRE 352 -96 224 -96
WIRE 400 -96 352 -96
WIRE 576 32 512 32
WIRE 720 32 688 32
WIRE 512 48 512 32
WIRE 688 48 688 32
WIRE -96 64 -96 -32
WIRE -32 64 -96 64
WIRE 80 64 -32 64
WIRE 208 64 80 64
WIRE 288 64 288 -32
WIRE 288 64 208 64
WIRE 1168 80 1152 80
WIRE 1248 80 1168 80
WIRE 1344 80 1344 -112
WIRE -320 96 -320 -288
WIRE -32 96 -32 64
WIRE 80 96 80 64
WIRE 208 96 208 64
WIRE 576 112 576 32
WIRE 624 112 576 112
WIRE 1248 144 1248 80
WIRE 1248 144 1216 144
WIRE 1280 144 1248 144
WIRE -112 160 -256 160
WIRE 16 160 -112 160
WIRE -496 704 -496 672
WIRE -400 704 -496 704
WIRE -304 704 -304 672
WIRE -128 704 -304 704
WIRE -32 704 -128 704
WIRE 592 704 592 672
WIRE 688 704 592 704
WIRE 784 704 784 672
WIRE 960 704 784 704
WIRE 1056 704 960 704
WIRE -496 736 -496 704
WIRE -304 736 -304 704
WIRE -128 736 -128 704
WIRE 64 736 64 688
WIRE 592 736 592 704
WIRE 784 736 784 704
WIRE 960 736 960 704
WIRE 1152 736 1152 688
WIRE -400 800 -400 704
WIRE -400 800 -432 800
WIRE -368 800 -400 800
WIRE -32 800 -32 704
WIRE -32 800 -64 800
WIRE 0 800 -32 800
WIRE 688 800 688 704
WIRE 688 800 656 800
WIRE 720 800 688 800
WIRE 1056 800 1056 704
WIRE 1056 800 1024 800
WIRE 1088 800 1056 800
WIRE -496 880 -496 864
WIRE -304 880 -304 864
WIRE -304 880 -496 880
WIRE -224 880 -304 880
WIRE -128 880 -128 864
WIRE -128 880 -224 880
WIRE 64 880 64 864
WIRE 64 880 -128 880
WIRE 592 880 592 864
WIRE 784 880 784 864
WIRE 784 880 592 880
WIRE 864 880 784 880
WIRE 960 880 960 864
WIRE 960 880 864 880
WIRE 1152 880 1152 864
WIRE 1152 880 960 880
WIRE -224 912 -224 880
WIRE 864 912 864 880
FLAG 1152 208 0
FLAG 1344 208 0
FLAG -320 224 0
FLAG 80 224 0
FLAG -224 -96 V_1
FLAG -96 -160 A
FLAG 16 -32 B
FLAG 160 -32 C
FLAG 288 -160 D
FLAG 432 -256 D
FLAG 1136 -256 A
FLAG 512 176 0
FLAG 688 176 0
FLAG 512 32 C
FLAG 624 -256 B
FLAG 1168 80 B
FLAG 720 32 A
FLAG 720 352 V_1
FLAG 720 432 0
FLAG 432 432 0
FLAG 576 432 0
FLAG 576 352 V_b
FLAG -112 160 V_b
FLAG -96 -368 V_bp
FLAG 1584 -112 Vout
FLAG 1440 -48 0
FLAG 400 -96 Vout
FLAG -224 912 0
FLAG 864 912 0
FLAG 736 -272 nI1_1
FLAG -496 672 nI1_1
FLAG 880 -272 nI1_2
FLAG 784 672 nI1_2
FLAG 1504 -272 nI2_1
FLAG -304 672 nI2_1
FLAG 1648 -272 nI2_2
FLAG 592 672 nI2_2
FLAG 64 688 I1mI2_1
FLAG 1152 688 I2mI2_1
FLAG -32 96 I1mI2_1
FLAG 208 96 I2mI2_1
SYMBOL nmos3 80 160 R0
SYMATTR InstName U1
SYMBOL nmos3 -96 -96 R0
WINDOW 0 -20 -1 Left 2
SYMATTR InstName U2
SYMBOL nmos3 288 -96 M0
WINDOW 0 -20 0 Left 2
SYMATTR InstName U3
SYMBOL nmos3 -320 160 M0
SYMATTR InstName U4
SYMBOL nmos3 1152 144 M0
SYMATTR InstName U5
SYMBOL nmos3 1344 144 R0
SYMATTR InstName U6
SYMBOL pmos3 80 -368 R0
SYMATTR InstName U7
SYMBOL pmos3 -320 -368 M0
SYMATTR InstName U8
SYMBOL vdd -320 -432 R0
SYMATTR InstName U9
SYMBOL vdd 80 -432 R0
SYMATTR InstName U10
SYMBOL pmos3 1344 -336 R0
SYMATTR InstName U11
SYMBOL pmos3 1136 -336 M0
SYMATTR InstName U12
SYMBOL vdd 1344 -400 R0
SYMATTR InstName U13
SYMBOL vdd 1136 -400 R0
SYMATTR InstName U14
SYMBOL pmos3 16 -96 R0
WINDOW 0 -22 1 Left 2
SYMATTR InstName U15
SYMBOL pmos3 160 -96 M0
WINDOW 0 -21 1 Left 2
SYMATTR InstName U16
SYMBOL pmos3 608 -336 R0
SYMATTR InstName U19
SYMBOL pmos3 432 -336 M0
SYMATTR InstName U20
SYMBOL vdd 432 -400 R0
SYMATTR InstName U23
SYMBOL vdd 608 -400 R0
SYMATTR InstName U24
SYMBOL nmos3 688 112 R0
SYMATTR InstName U17
SYMBOL nmos3 512 112 M0
SYMATTR InstName U18
SYMBOL voltage 576 336 R0
WINDOW 123 0 0 Left 2
WINDOW 39 0 0 Left 2
SYMATTR InstName Vb
SYMATTR Value 1.2
SYMBOL voltage 720 336 R0
WINDOW 123 0 0 Left 2
WINDOW 39 0 0 Left 2
SYMATTR InstName V1
SYMATTR Value PULSE(0V 5V .1us 0 0 4us 0 1)
SYMBOL voltage 432 336 R0
WINDOW 123 0 0 Left 2
WINDOW 39 0 0 Left 2
SYMATTR InstName Vdd
SYMATTR Value 5
SYMBOL vdd 432 352 R0
SYMATTR InstName U21
SYMBOL cap 1424 -112 R0
SYMATTR InstName C1
SYMATTR Value 10pF
SYMBOL nmos3 -496 800 M0
SYMATTR InstName U22
SYMBOL nmos3 -128 800 M0
SYMATTR InstName U25
SYMBOL nmos3 -304 800 R0
SYMATTR InstName U26
SYMBOL nmos3 64 800 R0
SYMATTR InstName U27
SYMBOL nmos3 592 800 M0
SYMATTR InstName U28
SYMBOL nmos3 960 800 M0
SYMATTR InstName U29
SYMBOL nmos3 784 800 R0
SYMATTR InstName U30
SYMBOL nmos3 1152 800 R0
SYMATTR InstName U31
SYMBOL pmos3 1504 -336 R0
SYMATTR InstName U32
SYMBOL pmos3 736 -336 R0
SYMATTR InstName U33
SYMBOL vdd 736 -400 R0
SYMATTR InstName U34
SYMBOL vdd 1504 -400 R0
SYMATTR InstName U35
SYMBOL pmos3 880 -336 R0
SYMATTR InstName U36
SYMBOL pmos3 1648 -336 R0
SYMATTR InstName U37
SYMBOL vdd 880 -400 R0
SYMATTR InstName U38
SYMBOL vdd 1648 -400 R0
SYMATTR InstName U39
TEXT -216 392 Left 2 !.include engr2420.sub
TEXT -216 464 Left 2 !.tran 7us
