Version 4
SHEET 1 1440 680
WIRE -240 -368 -256 -368
WIRE -96 -368 -240 -368
WIRE 16 -368 -96 -368
WIRE 608 -352 560 -352
WIRE 992 -352 976 -352
WIRE 1056 -352 992 -352
WIRE -320 -288 -320 -304
WIRE -240 -288 -240 -368
WIRE -240 -288 -320 -288
WIRE 496 -272 496 -288
WIRE 560 -272 560 -352
WIRE 560 -272 496 -272
WIRE 672 -272 672 -288
WIRE 688 -272 672 -272
WIRE 912 -272 912 -288
WIRE 992 -272 992 -352
WIRE 992 -272 912 -272
WIRE 80 -240 80 -304
WIRE 80 -240 16 -240
WIRE 160 -240 80 -240
WIRE 16 -160 16 -240
WIRE 160 -160 160 -240
WIRE 1120 -128 1120 -288
WIRE 1216 -128 1120 -128
WIRE 1360 -128 1216 -128
WIRE -160 -96 -224 -96
WIRE -48 -96 -160 -96
WIRE 352 -96 224 -96
WIRE 400 -96 352 -96
WIRE 576 32 512 32
WIRE 720 32 688 32
WIRE 512 48 512 32
WIRE 688 48 688 32
WIRE -96 64 -96 -32
WIRE 80 64 -96 64
WIRE 288 64 288 -32
WIRE 288 64 80 64
WIRE 944 64 928 64
WIRE 1024 64 944 64
WIRE 1120 64 1120 -128
WIRE -320 96 -320 -288
WIRE 80 96 80 64
WIRE 576 112 576 32
WIRE 624 112 576 112
WIRE 1024 128 1024 64
WIRE 1024 128 992 128
WIRE 1056 128 1024 128
WIRE -112 160 -256 160
WIRE 16 160 -112 160
FLAG 928 192 0
FLAG 1120 192 0
FLAG -320 224 0
FLAG 80 224 0
FLAG -224 -96 V_1
FLAG -96 -160 A
FLAG 16 -32 B
FLAG 160 -32 C
FLAG 288 -160 D
FLAG 496 -272 D
FLAG 912 -272 A
FLAG 512 176 0
FLAG 688 176 0
FLAG 512 32 C
FLAG 688 -272 B
FLAG 944 64 B
FLAG 720 32 A
FLAG 720 352 V_1
FLAG 720 432 0
FLAG 432 432 0
FLAG 576 432 0
FLAG 576 352 V_b
FLAG -112 160 V_b
FLAG -96 -368 V_bp
FLAG 1360 -128 Vout
FLAG 1216 -64 0
FLAG 400 -96 Vout
SYMBOL nmos3 80 160 R0
SYMATTR InstName U1
SYMBOL nmos3 -96 -96 R0
WINDOW 0 -20 -1 Left 2
SYMATTR InstName U2
SYMBOL nmos3 288 -96 M0
WINDOW 0 -20 0 Left 2
SYMATTR InstName U3
SYMBOL nmos3 -320 160 M0
SYMATTR InstName U4
SYMBOL nmos3 928 128 M0
SYMATTR InstName U5
SYMBOL nmos3 1120 128 R0
SYMATTR InstName U6
SYMBOL pmos3 80 -368 R0
SYMATTR InstName U7
SYMBOL pmos3 -320 -368 M0
SYMATTR InstName U8
SYMBOL vdd -320 -432 R0
SYMATTR InstName U9
SYMBOL vdd 80 -432 R0
SYMATTR InstName U10
SYMBOL pmos3 1120 -352 R0
SYMATTR InstName U11
SYMBOL pmos3 912 -352 M0
SYMATTR InstName U12
SYMBOL vdd 1120 -416 R0
SYMATTR InstName U13
SYMBOL vdd 912 -416 R0
SYMATTR InstName U14
SYMBOL pmos3 16 -96 R0
WINDOW 0 -22 1 Left 2
SYMATTR InstName U15
SYMBOL pmos3 160 -96 M0
WINDOW 0 -21 1 Left 2
SYMATTR InstName U16
SYMBOL pmos3 672 -352 R0
SYMATTR InstName U19
SYMBOL pmos3 496 -352 M0
SYMATTR InstName U20
SYMBOL vdd 496 -416 R0
SYMATTR InstName U23
SYMBOL vdd 672 -416 R0
SYMATTR InstName U24
SYMBOL nmos3 688 112 R0
SYMATTR InstName U17
SYMBOL nmos3 512 112 M0
SYMATTR InstName U18
SYMBOL voltage 576 336 R0
WINDOW 123 0 0 Left 2
WINDOW 39 0 0 Left 2
SYMATTR InstName Vb
SYMATTR Value 1.2
SYMBOL voltage 720 336 R0
WINDOW 123 0 0 Left 2
WINDOW 39 0 0 Left 2
SYMATTR InstName V1
SYMATTR Value PULSE(2.5 2.550V .1us 0 0 4us 0 1)
SYMBOL voltage 432 336 R0
WINDOW 123 0 0 Left 2
WINDOW 39 0 0 Left 2
SYMATTR InstName Vdd
SYMATTR Value 5
SYMBOL vdd 432 352 R0
SYMATTR InstName U21
SYMBOL cap 1200 -128 R0
SYMATTR InstName C1
SYMATTR Value 10pF
TEXT -216 392 Left 2 !.include engr2420.sub
TEXT -216 464 Left 2 !.tran 7us
